1656750058.738082s 1 https://api.dandiarchive.org/api/zarr/f43d5477-9f9e-4a7f-a529-8411022d2a00.zarr/0/0/0/12/14/45
1656750058.718928s 1 https://dandiarchive.s3.amazonaws.com/zarr/f43d5477-9f9e-4a7f-a529-8411022d2a00/0/0/0/12/14/45?versionId=MT3Dw0L7KRFODbP4Pe1EHSJA6IYLYII_
